@<TRIPOS>MOLECULE
lig.pdb
 33 34 0 0 0
SMALL
GASTEIGER

@<TRIPOS>ATOM
      1  C1        31.8000   41.7470   66.0900 C.ar  278  MOL278     -0.0614
      2  C2        30.9280   42.8150   65.7970 C.ar  278  MOL278     -0.0600
      3  C3        30.9920   43.4680   64.5510 C.ar  278  MOL278     -0.0404
      4  C4        32.7550   41.3280   65.1440 C.ar  278  MOL278     -0.0568
      5  C5        32.8000   41.9870   63.9090 C.ar  278  MOL278     -0.0249
      6  C6        31.9350   43.0240   63.6090 C.ar  278  MOL278      0.0329
      7  N1        32.1460   43.5160   62.3320 N.pl3 278  MOL278     -0.3311
      8  C7        33.7340   41.7240   62.7490 C.3   278  MOL278     -0.0102
      9  C8        33.2740   42.7790   61.7000 C.3   278  MOL278      0.0161
     10  C9        31.9730   44.9260   61.9550 C.3   278  MOL278     -0.0026
     11  C10       30.4990   45.2110   61.5930 C.3   278  MOL278     -0.0752
     12  N2        30.1570   46.6340   61.1760 N.4   278  MOL278      0.3770
     13  C11       30.5000   47.6000   62.2950 C.3   278  MOL278     -0.1035
     14  C12       30.9040   47.0190   59.9080 C.3   278  MOL278     -0.1035
     15  H1        31.7300   41.2510   67.0530 H     278  MOL278      0.0618
     16  H2        30.2010   43.1310   66.5410 H     278  MOL278      0.0618
     17  H3        30.3140   44.2860   64.3310 H     278  MOL278      0.0636
     18  H4        33.4390   40.5130   65.3640 H     278  MOL278      0.0621
     19  H5        34.7840   41.8860   63.0270 H     278  MOL278      0.0329
     20  H6        33.6320   40.7060   62.3530 H     278  MOL278      0.0329
     21  H7        32.9580   42.2860   60.7730 H     278  MOL278      0.0467
     22  H8        34.1120   43.4490   61.4800 H     278  MOL278      0.0467
     23  H9        32.2990   45.5670   62.7830 H     278  MOL278      0.0445
     24  H10       32.6070   45.1550   61.0890 H     278  MOL278      0.0445
     25  H11       30.2050   44.5630   60.7680 H     278  MOL278      0.0074
     26  H12       29.8650   44.9700   62.4470 H     278  MOL278      0.0074
     27  H13       29.1370   46.6710   60.9840 H     278  MOL278     -0.0826
     28  H14       31.5570   47.5020   62.5440 H     278  MOL278      0.0023
     29  H15       29.8830   47.3680   63.1660 H     278  MOL278      0.0023
     30  H16       30.2990   48.6160   61.9620 H     278  MOL278      0.0023
     31  H17       31.9780   46.9870   60.0990 H     278  MOL278      0.0023
     32  H18       30.6100   48.0280   59.6080 H     278  MOL278      0.0023
     33  H19       30.6440   46.3140   59.1160 H     278  MOL278      0.0023
@<TRIPOS>BOND
     1    33    14    1
     2    32    14    1
     3    14    31    1
     4    14    12    1
     5    25    11    1
     6    21     9    1
     7    27    12    1
     8    24    10    1
     9    12    11    1
    10    12    13    1
    11    22     9    1
    12    11    10    1
    13    11    26    1
    14     9     7    1
    15     9     8    1
    16    10     7    1
    17    10    23    1
    18    30    13    1
    19    13    28    1
    20    13    29    1
    21     7     6    1
    22    20     8    1
    23     8    19    1
    24     8     5    1
    25     6     5   ar
    26     6     3   ar
    27     5     4   ar
    28    17     3    1
    29     3     2   ar
    30     4    18    1
    31     4     1   ar
    32     2     1   ar
    33     2    16    1
    34     1    15    1
