REMARK  3 active torsions:
REMARK  status: ('A' for Active; 'I' for Inactive)
REMARK    1  A    between atoms: N_7  and  C_10 
REMARK    2  A    between atoms: C_10  and  C_11 
REMARK    3  A    between atoms: C_11  and  N_12 
ROOT
HETATM    1  C   MOL     1      -3.854  -0.462   0.339  1.00  0.00     0.001 A 
HETATM    2  C   MOL     1      -3.436   0.846   0.624  1.00  0.00     0.002 A 
HETATM    3  C   MOL     1      -2.090   1.209   0.502  1.00  0.00     0.024 A 
HETATM    4  C   MOL     1      -2.932  -1.421  -0.075  1.00  0.00     0.009 A 
HETATM    5  C   MOL     1      -1.602  -1.046  -0.178  1.00  0.00    -0.036 A 
HETATM    6  C   MOL     1      -1.166   0.253   0.109  1.00  0.00     0.017 A 
HETATM    7  N   MOL     1       0.222   0.416  -0.103  1.00  0.00    -0.281 NA
HETATM    8  C   MOL     1      -0.444  -1.866  -0.629  1.00  0.00     0.055 C 
HETATM    9  C   MOL     1       0.717  -0.976  -0.159  1.00  0.00     0.100 C 
ENDROOT
BRANCH   7  10
HETATM   10  C   MOL     1       0.921   1.372   0.767  1.00  0.00     0.126 C 
BRANCH  10  11
HETATM   11  C   MOL     1       2.391   1.566   0.323  1.00  0.00     0.286 C 
BRANCH  11  12
HETATM   12  N   MOL     1       3.123   2.608   1.077  1.00  0.00     0.081 N 
HETATM   13  C   MOL     1       3.353   2.214   2.468  1.00  0.00     0.309 C 
HETATM   14  C   MOL     1       4.404   2.888   0.423  1.00  0.00     0.309 C 
ENDBRANCH  11  12
ENDBRANCH  10  11
ENDBRANCH   7  10
TORSDOF 3
